Circuit: * C:\Users\Felix\Desktop\Cours\system num pour appli\Kit_etudiant_2021\Kit_etudiant_2021\main.asc

Fatal Error: Unknown subcircuit called in:
   xu1 i n002 out n003 n001 0 xx405x
