Circuit: * C:\Users\Felix\Desktop\Cours\system num pour appli\Kit_etudiant_2021\Kit_etudiant_2021\projet3.asc

Direct Newton iteration failed to find .op point.  (Use ".option noopiter" to skip.)
Starting Gmin stepping
Gmin = 10
Gmin = 1.07374
Gmin = 0.115292
Gmin = 0.0123794
Gmin = 0.00132923
Gmin = 0.000142725
Gmin = 1.5325e-005
Gmin = 1.6455e-006
Gmin = 1.76685e-007
Gmin = 1.89714e-008
Gmin = 2.03704e-009
Gmin = 2.18725e-010
Gmin = 2.34854e-011
Gmin = 2.52173e-012
Gmin = 2.70769e-013
Gmin = 0
Gmin stepping succeeded in finding the operating point.


Date: Fri Sep 16 04:08:23 2022
Total elapsed time: 0.560 seconds.

tnom = 27
temp = 27
method = modified trap
totiter = 2829
traniter = 2237
tranpoints = 1042
accept = 1042
rejected = 0
matrix size = 97
fillins = 79
solver = Normal
Thread vector: 52.0/14.4[2] 7.7/4.1[2] 8.2/4.4[2] 0.6/1.9[1]  2592/500
Matrix Compiler1: 7.31 KB object code size  5.2/2.7/[1.3]
Matrix Compiler2: 9.03 KB object code size  3.8/3.1/[1.1]

