Circuit: * Y:\Boulot\Enseignements\M1_ESET_STAE_EMEAE2C1\TPs\LTspice_2019\source_signal_random_NRZ2.asc

Limiting rise time of source v2 to 1.25e-007
Limiting fall time of source v2 to 1.25e-007
Limiting rise time of source v1 to 2.4999e-007
Limiting fall time of source v1 to 2.4999e-007
Direct Newton iteration for .op point succeeded.

Date: Wed Feb 13 15:42:46 2019
Total elapsed time: 54.162 seconds.

tnom = 27
temp = 27
method = modified trap
totiter = 4003957
traniter = 4003954
tranpoints = 2001963
accept = 2001619
rejected = 344
matrix size = 10
fillins = 0
solver = Normal
Matrix Compiler1: 184 bytes object code size  0.4/0.4/[0.4]
Matrix Compiler2: 436 bytes object code size  0.4/0.4/[0.4]

