Circuit: * Y:\Boulot\Enseignements\M1_ESET_STAE_EMEAE2C1\TPs\Kit_etudiant_2019\source_signal_random_NRZ2_test.asc

Limiting rise time of source v:x1:2 to 1.25e-007
Limiting fall time of source v:x1:2 to 1.25e-007
Limiting rise time of source v:x1:1 to 2.4999e-007
Limiting fall time of source v:x1:1 to 2.4999e-007
Direct Newton iteration for .op point succeeded.

Date: Fri Mar 22 09:47:29 2019
Total elapsed time: 3.069 seconds.

tnom = 27
temp = 27
method = modified trap
totiter = 462925
traniter = 462922
tranpoints = 231460
accept = 231425
rejected = 35
matrix size = 10
fillins = 0
solver = Normal
Matrix Compiler1: 184 bytes object code size  0.4/0.4/[0.4]
Matrix Compiler2: 436 bytes object code size  0.4/0.4/[0.4]

