Circuit: * C:\Users\Felix\Desktop\Cours\system num pour appli\Kit_etudiant_2021\Kit_etudiant_2021\Switch_HC4052\Switch_HC4052\SWITCH_HC4052_test.asc


Date: Sun Feb 27 10:31:22 2022
Total elapsed time: 0.090 seconds.

tnom = 27
temp = 27
method = trap
totiter = 2025
traniter = 0
tranpoints = 0
accept = 0
rejected = 0
matrix size = 80
fillins = 43
solver = Normal
Thread vector: 20.9/11.8[2] 0.0/0.0[0] 2.1/2.1[1] 0.9/1.7[1]  2592/500
Matrix Compiler1: 16.11 KB object code size  7.1/2.9/[1.8]
Matrix Compiler2: 9.98 KB object code size  2.5/2.2/[1.2]

