Circuit: * C:\Users\Felix\Desktop\Cours\system num pour appli\Kit_etudiant_2021\Kit_etudiant_2021\test.asc

Direct Newton iteration for .op point succeeded.

Date: Thu Apr 21 14:14:29 2022
Total elapsed time: 0.132 seconds.

tnom = 27
temp = 27
method = modified trap
totiter = 2088
traniter = 2082
tranpoints = 1042
accept = 1042
rejected = 0
matrix size = 9
fillins = 0
solver = Normal
Matrix Compiler1: 474 bytes object code size  0.2/0.1/[0.1]
Matrix Compiler2: 701 bytes object code size  0.1/0.1/[0.1]

