Circuit: * C:\Users\Felix\Desktop\Cours\system num pour appli\Kit_etudiant_2021\Kit_etudiant_2021\test2.asc

Limiting rise time of source v:x1:2 to 1.25e-007
Limiting fall time of source v:x1:2 to 1.25e-007
Limiting rise time of source v:x1:1 to 2.4999e-007
Limiting fall time of source v:x1:1 to 2.4999e-007
Direct Newton iteration for .op point succeeded.

Date: Sun Feb 27 10:08:07 2022
Total elapsed time: 1.940 seconds.

tnom = 27
temp = 27
method = modified trap
totiter = 562658
traniter = 562655
tranpoints = 224844
accept = 172716
rejected = 52128
matrix size = 15
fillins = 0
solver = Normal
Matrix Compiler1: 344 bytes object code size  0.3/0.1/[0.1]
Matrix Compiler2: 753 bytes object code size  0.2/0.3/[0.2]

